[Format]      =  1
[Precision]   =  1e-008
[MinAngle]    =  30
[DoSmartMesh] =  1
[Depth]       =  1
[LengthUnits] =  meters
[ProblemType] =  axisymmetric
[Coordinates] =  cartesian
[PrevSoln] = ""
[dT] = 0
[Comment]     =  "Add comments here."
[PointProps]   = 0
[BdryProps]   = 1
  <BeginBdry>
    <BdryName> = "Boundary"
    <BdryType> = 0
    <Tset> = 273
    <qs>   = 0
    <beta> = 0
    <h>    = 0
    <Tinf> = 0
  <EndBdry>
[BlockProps]  = 50
  <BeginBlock>
    <BlockName> = "Core"
    <Kx> = 5
    <Ky> = 5
    <Kt> = 0
    <qv> = 17914.549394402973
  <EndBlock>
  <BeginBlock>
    <BlockName> = "Air"
    <Kx> = 0.0263
    <Ky> = 0.0263
    <Kt> = 0
    <qv> = 0
  <EndBlock>
  <BeginBlock>
    <BlockName> = "Wire_0_0"
    <Kx> = 400
    <Ky> = 400
    <Kt> = 0
    <qv> = 73502.184156276257
  <EndBlock>
  <BeginBlock>
    <BlockName> = "Wire_0_1"
    <Kx> = 400
    <Ky> = 400
    <Kt> = 0
    <qv> = 288347.38754360046
  <EndBlock>
  <BeginBlock>
    <BlockName> = "Wire_0_2"
    <Kx> = 400
    <Ky> = 400
    <Kt> = 0
    <qv> = 785634.84190692904
  <EndBlock>
  <BeginBlock>
    <BlockName> = "Wire_0_3"
    <Kx> = 400
    <Ky> = 400
    <Kt> = 0
    <qv> = 1728056.5429827415
  <EndBlock>
  <BeginBlock>
    <BlockName> = "Wire_0_4"
    <Kx> = 400
    <Ky> = 400
    <Kt> = 0
    <qv> = 3499957.9424739857
  <EndBlock>
  <BeginBlock>
    <BlockName> = "Wire_0_5"
    <Kx> = 400
    <Ky> = 400
    <Kt> = 0
    <qv> = 9702469.8831935022
  <EndBlock>
  <BeginBlock>
    <BlockName> = "Wire_0_6"
    <Kx> = 400
    <Ky> = 400
    <Kt> = 0
    <qv> = 8264117.6194842514
  <EndBlock>
  <BeginBlock>
    <BlockName> = "Wire_0_7"
    <Kx> = 400
    <Ky> = 400
    <Kt> = 0
    <qv> = 3051968.4066090458
  <EndBlock>
  <BeginBlock>
    <BlockName> = "Wire_0_8"
    <Kx> = 400
    <Ky> = 400
    <Kt> = 0
    <qv> = 1448942.0967220254
  <EndBlock>
  <BeginBlock>
    <BlockName> = "Wire_0_9"
    <Kx> = 400
    <Ky> = 400
    <Kt> = 0
    <qv> = 616938.50601835817
  <EndBlock>
  <BeginBlock>
    <BlockName> = "Wire_0_10"
    <Kx> = 400
    <Ky> = 400
    <Kt> = 0
    <qv> = 202145.08048959321
  <EndBlock>
  <BeginBlock>
    <BlockName> = "Wire_0_11"
    <Kx> = 400
    <Ky> = 400
    <Kt> = 0
    <qv> = 35569.187890497633
  <EndBlock>
  <BeginBlock>
    <BlockName> = "Wire_0_12"
    <Kx> = 400
    <Ky> = 400
    <Kt> = 0
    <qv> = 48856.443210580022
  <EndBlock>
  <BeginBlock>
    <BlockName> = "Wire_0_13"
    <Kx> = 400
    <Ky> = 400
    <Kt> = 0
    <qv> = 69968.337591742165
  <EndBlock>
  <BeginBlock>
    <BlockName> = "Wire_0_14"
    <Kx> = 400
    <Ky> = 400
    <Kt> = 0
    <qv> = 107707.7601016089
  <EndBlock>
  <BeginBlock>
    <BlockName> = "Wire_0_15"
    <Kx> = 400
    <Ky> = 400
    <Kt> = 0
    <qv> = 145641.25999532052
  <EndBlock>
  <BeginBlock>
    <BlockName> = "Wire_0_16"
    <Kx> = 400
    <Ky> = 400
    <Kt> = 0
    <qv> = 169284.69135939519
  <EndBlock>
  <BeginBlock>
    <BlockName> = "Wire_0_17"
    <Kx> = 400
    <Ky> = 400
    <Kt> = 0
    <qv> = 176778.91142487491
  <EndBlock>
  <BeginBlock>
    <BlockName> = "Wire_0_18"
    <Kx> = 400
    <Ky> = 400
    <Kt> = 0
    <qv> = 162164.22346962892
  <EndBlock>
  <BeginBlock>
    <BlockName> = "Wire_0_19"
    <Kx> = 400
    <Ky> = 400
    <Kt> = 0
    <qv> = 134572.01175452722
  <EndBlock>
  <BeginBlock>
    <BlockName> = "Wire_0_20"
    <Kx> = 400
    <Ky> = 400
    <Kt> = 0
    <qv> = 106917.82743178729
  <EndBlock>
  <BeginBlock>
    <BlockName> = "Wire_0_21"
    <Kx> = 400
    <Ky> = 400
    <Kt> = 0
    <qv> = 75705.721843097534
  <EndBlock>
  <BeginBlock>
    <BlockName> = "Wire_0_22"
    <Kx> = 400
    <Ky> = 400
    <Kt> = 0
    <qv> = 47361.193444131444
  <EndBlock>
  <BeginBlock>
    <BlockName> = "Wire_0_23"
    <Kx> = 400
    <Ky> = 400
    <Kt> = 0
    <qv> = 28397.889254639183
  <EndBlock>
  <BeginBlock>
    <BlockName> = "Wire_0_24"
    <Kx> = 400
    <Ky> = 400
    <Kt> = 0
    <qv> = 15080.747477008934
  <EndBlock>
  <BeginBlock>
    <BlockName> = "Wire_0_25"
    <Kx> = 400
    <Ky> = 400
    <Kt> = 0
    <qv> = 26731.429179234521
  <EndBlock>
  <BeginBlock>
    <BlockName> = "Wire_0_26"
    <Kx> = 400
    <Ky> = 400
    <Kt> = 0
    <qv> = 45446.490640856238
  <EndBlock>
  <BeginBlock>
    <BlockName> = "Wire_0_27"
    <Kx> = 400
    <Ky> = 400
    <Kt> = 0
    <qv> = 57264.658704809008
  <EndBlock>
  <BeginBlock>
    <BlockName> = "Wire_0_28"
    <Kx> = 400
    <Ky> = 400
    <Kt> = 0
    <qv> = 53969.516868866158
  <EndBlock>
  <BeginBlock>
    <BlockName> = "Wire_0_29"
    <Kx> = 400
    <Ky> = 400
    <Kt> = 0
    <qv> = 41858.837446601305
  <EndBlock>
  <BeginBlock>
    <BlockName> = "Wire_0_30"
    <Kx> = 400
    <Ky> = 400
    <Kt> = 0
    <qv> = 34646.715263592509
  <EndBlock>
  <BeginBlock>
    <BlockName> = "Wire_0_31"
    <Kx> = 400
    <Ky> = 400
    <Kt> = 0
    <qv> = 35312.971816430138
  <EndBlock>
  <BeginBlock>
    <BlockName> = "Wire_0_32"
    <Kx> = 400
    <Ky> = 400
    <Kt> = 0
    <qv> = 34879.233398087817
  <EndBlock>
  <BeginBlock>
    <BlockName> = "Wire_0_33"
    <Kx> = 400
    <Ky> = 400
    <Kt> = 0
    <qv> = 26662.661436525872
  <EndBlock>
  <BeginBlock>
    <BlockName> = "Wire_0_34"
    <Kx> = 400
    <Ky> = 400
    <Kt> = 0
    <qv> = 15428.965747398657
  <EndBlock>
  <BeginBlock>
    <BlockName> = "Wire_0_35"
    <Kx> = 400
    <Ky> = 400
    <Kt> = 0
    <qv> = 8690.0524550778173
  <EndBlock>
  <BeginBlock>
    <BlockName> = "Wire_1_0"
    <Kx> = 400
    <Ky> = 400
    <Kt> = 0
    <qv> = 23833.983547701577
  <EndBlock>
  <BeginBlock>
    <BlockName> = "Wire_1_1"
    <Kx> = 400
    <Ky> = 400
    <Kt> = 0
    <qv> = 27251.670240555221
  <EndBlock>
  <BeginBlock>
    <BlockName> = "Wire_1_2"
    <Kx> = 400
    <Ky> = 400
    <Kt> = 0
    <qv> = 34500.184340214197
  <EndBlock>
  <BeginBlock>
    <BlockName> = "Wire_1_3"
    <Kx> = 400
    <Ky> = 400
    <Kt> = 0
    <qv> = 50071.014217205702
  <EndBlock>
  <BeginBlock>
    <BlockName> = "Wire_1_4"
    <Kx> = 400
    <Ky> = 400
    <Kt> = 0
    <qv> = 83133.461273899622
  <EndBlock>
  <BeginBlock>
    <BlockName> = "Wire_1_5"
    <Kx> = 400
    <Ky> = 400
    <Kt> = 0
    <qv> = 131873.67645924867
  <EndBlock>
  <BeginBlock>
    <BlockName> = "Wire_1_6"
    <Kx> = 400
    <Ky> = 400
    <Kt> = 0
    <qv> = 123265.73860588498
  <EndBlock>
  <BeginBlock>
    <BlockName> = "Wire_1_7"
    <Kx> = 400
    <Ky> = 400
    <Kt> = 0
    <qv> = 71522.360650401082
  <EndBlock>
  <BeginBlock>
    <BlockName> = "Wire_1_8"
    <Kx> = 400
    <Ky> = 400
    <Kt> = 0
    <qv> = 44066.570700279975
  <EndBlock>
  <BeginBlock>
    <BlockName> = "Wire_1_9"
    <Kx> = 400
    <Ky> = 400
    <Kt> = 0
    <qv> = 31315.591012895064
  <EndBlock>
  <BeginBlock>
    <BlockName> = "Wire_1_10"
    <Kx> = 400
    <Ky> = 400
    <Kt> = 0
    <qv> = 25239.198659665297
  <EndBlock>
  <BeginBlock>
    <BlockName> = "Case"
    <Kx> = 0.29999999999999999
    <Ky> = 0.29999999999999999
    <Kt> = 0
    <qv> = 0
  <EndBlock>
[ConductorProps]  = 0
[NumPoints] = 110
0	-0.00025000000000000001	0	0	0
0.0074999999999999997	-0.00025000000000000001	0	0	0
0.0074999999999999997	-0.014749999999999999	0	0	0
0.0195	-0.014749999999999999	0	0	0
0.0195	0.014749999999999999	0	0	0
0.0074999999999999997	0.014749999999999999	0	0	0
0.0074999999999999997	0.00025000000000000001	0	0	0
0	0.00025000000000000001	0	0	0
0	0.018499999999999999	0	0	0
0.020892582415776177	0.018499999999999999	0	0	0
0.020892582415776177	-0.018499999999999999	0	0	0
0	-0.018499999999999999	0	0	0
0	0.02	0	0	0
0.023392582415776176	0.02	0	0	0
0.023392582415776176	-0.020499999999999997	0	0	0
0	-0.020499999999999997	0	0	0
0.0080000000000000002	0.013149999999999998	0	0	0
0.010200000000000001	0.013149999999999998	0	0	0
0.0080000000000000002	0.010749999999999999	0	0	0
0.010200000000000001	0.010749999999999999	0	0	0
0.0080000000000000002	0.0083499999999999998	0	0	0
0.010200000000000001	0.0083499999999999998	0	0	0
0.0080000000000000002	0.0059499999999999996	0	0	0
0.010200000000000001	0.0059499999999999996	0	0	0
0.0080000000000000002	0.0035499999999999993	0	0	0
0.010200000000000001	0.0035499999999999993	0	0	0
0.0080000000000000002	0.0011499999999999991	0	0	0
0.010200000000000001	0.0011499999999999991	0	0	0
0.0080000000000000002	-0.0012500000000000011	0	0	0
0.010200000000000001	-0.0012500000000000011	0	0	0
0.0080000000000000002	-0.0036500000000000013	0	0	0
0.010200000000000001	-0.0036500000000000013	0	0	0
0.0080000000000000002	-0.0060500000000000016	0	0	0
0.010200000000000001	-0.0060500000000000016	0	0	0
0.0080000000000000002	-0.0084500000000000026	0	0	0
0.010200000000000001	-0.0084500000000000026	0	0	0
0.0080000000000000002	-0.010850000000000002	0	0	0
0.010200000000000001	-0.010850000000000002	0	0	0
0.0080000000000000002	-0.013250000000000001	0	0	0
0.010200000000000001	-0.013250000000000001	0	0	0
0.013445217138719549	0.013149999999999998	0	0	0
0.015645217138719549	0.013149999999999998	0	0	0
0.013445217138719549	0.010749999999999999	0	0	0
0.015645217138719549	0.010749999999999999	0	0	0
0.013445217138719549	0.0083499999999999998	0	0	0
0.015645217138719549	0.0083499999999999998	0	0	0
0.013445217138719549	0.0059499999999999996	0	0	0
0.015645217138719549	0.0059499999999999996	0	0	0
0.013445217138719549	0.0035499999999999993	0	0	0
0.015645217138719549	0.0035499999999999993	0	0	0
0.013445217138719549	0.0011499999999999991	0	0	0
0.015645217138719549	0.0011499999999999991	0	0	0
0.013445217138719549	-0.0012500000000000011	0	0	0
0.015645217138719549	-0.0012500000000000011	0	0	0
0.013445217138719549	-0.0036500000000000013	0	0	0
0.015645217138719549	-0.0036500000000000013	0	0	0
0.013445217138719549	-0.0060500000000000016	0	0	0
0.015645217138719549	-0.0060500000000000016	0	0	0
0.013445217138719549	-0.0084500000000000026	0	0	0
0.015645217138719549	-0.0084500000000000026	0	0	0
0.013445217138719549	-0.010850000000000002	0	0	0
0.015645217138719549	-0.010850000000000002	0	0	0
0.013445217138719549	-0.013250000000000001	0	0	0
0.015645217138719549	-0.013250000000000001	0	0	0
0.015845217138719551	0.013149999999999998	0	0	0
0.018045217138719552	0.013149999999999998	0	0	0
0.015845217138719551	0.010749999999999999	0	0	0
0.018045217138719552	0.010749999999999999	0	0	0
0.015845217138719551	0.0083499999999999998	0	0	0
0.018045217138719552	0.0083499999999999998	0	0	0
0.015845217138719551	0.0059499999999999996	0	0	0
0.018045217138719552	0.0059499999999999996	0	0	0
0.015845217138719551	0.0035499999999999993	0	0	0
0.018045217138719552	0.0035499999999999993	0	0	0
0.015845217138719551	0.0011499999999999991	0	0	0
0.018045217138719552	0.0011499999999999991	0	0	0
0.015845217138719551	-0.0012500000000000011	0	0	0
0.018045217138719552	-0.0012500000000000011	0	0	0
0.015845217138719551	-0.0036500000000000013	0	0	0
0.018045217138719552	-0.0036500000000000013	0	0	0
0.015845217138719551	-0.0060500000000000016	0	0	0
0.018045217138719552	-0.0060500000000000016	0	0	0
0.015845217138719551	-0.0084500000000000026	0	0	0
0.018045217138719552	-0.0084500000000000026	0	0	0
0.015845217138719551	-0.010850000000000002	0	0	0
0.018045217138719552	-0.010850000000000002	0	0	0
0.015845217138719551	-0.013250000000000001	0	0	0
0.018045217138719552	-0.013250000000000001	0	0	0
0.010699999999999999	0.013127391430640224	0	0	0
0.01294521713871955	0.013127391430640224	0	0	0
0.010699999999999999	0.010682174291920674	0	0	0
0.01294521713871955	0.010682174291920674	0	0	0
0.010699999999999999	0.008236957153201125	0	0	0
0.01294521713871955	0.008236957153201125	0	0	0
0.010699999999999999	0.0057917400144815757	0	0	0
0.01294521713871955	0.0057917400144815757	0	0	0
0.010699999999999999	0.003346522875762026	0	0	0
0.01294521713871955	0.003346522875762026	0	0	0
0.010699999999999999	0.00090130573704247634	0	0	0
0.01294521713871955	0.00090130573704247634	0	0	0
0.010699999999999999	-0.0015439114016770734	0	0	0
0.01294521713871955	-0.0015439114016770734	0	0	0
0.010699999999999999	-0.0039891285403966231	0	0	0
0.01294521713871955	-0.0039891285403966231	0	0	0
0.010699999999999999	-0.0064343456791161723	0	0	0
0.01294521713871955	-0.0064343456791161723	0	0	0
0.010699999999999999	-0.0088795628178357216	0	0	0
0.01294521713871955	-0.0088795628178357216	0	0	0
0.010699999999999999	-0.011324779956555271	0	0	0
0.01294521713871955	-0.011324779956555271	0	0	0
[NumSegments] = 18
0	1	-1	0	0	0	0
1	2	-1	0	0	0	0
2	3	-1	0	0	0	0
3	4	-1	0	0	0	0
4	5	-1	0	0	0	0
5	6	-1	0	0	0	0
6	7	-1	0	0	0	0
7	8	-1	0	0	0	0
8	9	-1	0	0	0	0
9	10	-1	0	0	0	0
10	11	-1	0	0	0	0
11	0	-1	0	0	0	0
0	7	-1	0	0	0	0
8	12	-1	0	0	0	0
12	13	-1	1	0	2	0
13	14	-1	1	0	2	0
14	15	-1	1	0	2	0
15	11	-1	0	0	0	0
[NumArcSegments] = 94
16	17	180	2.5	0	0	0	0	1
17	16	180	2.5	0	0	0	0	1
18	19	180	2.5	0	0	0	0	1
19	18	180	2.5	0	0	0	0	1
20	21	180	2.5	0	0	0	0	1
21	20	180	2.5	0	0	0	0	1
22	23	180	2.5	0	0	0	0	1
23	22	180	2.5	0	0	0	0	1
24	25	180	2.5	0	0	0	0	1
25	24	180	2.5	0	0	0	0	1
26	27	180	2.5	0	0	0	0	1
27	26	180	2.5	0	0	0	0	1
28	29	180	2.5	0	0	0	0	1
29	28	180	2.5	0	0	0	0	1
30	31	180	2.5	0	0	0	0	1
31	30	180	2.5	0	0	0	0	1
32	33	180	2.5	0	0	0	0	1
33	32	180	2.5	0	0	0	0	1
34	35	180	2.5	0	0	0	0	1
35	34	180	2.5	0	0	0	0	1
36	37	180	2.5	0	0	0	0	1
37	36	180	2.5	0	0	0	0	1
38	39	180	2.5	0	0	0	0	1
39	38	180	2.5	0	0	0	0	1
40	41	180	2.5	0	0	0	0	1
41	40	180	2.5	0	0	0	0	1
42	43	180	2.5	0	0	0	0	1
43	42	180	2.5	0	0	0	0	1
44	45	180	2.5	0	0	0	0	1
45	44	180	2.5	0	0	0	0	1
46	47	180	2.5	0	0	0	0	1
47	46	180	2.5	0	0	0	0	1
48	49	180	2.5	0	0	0	0	1
49	48	180	2.5	0	0	0	0	1
50	51	180	2.5	0	0	0	0	1
51	50	180	2.5	0	0	0	0	1
52	53	180	2.5	0	0	0	0	1
53	52	180	2.5	0	0	0	0	1
54	55	180	2.5	0	0	0	0	1
55	54	180	2.5	0	0	0	0	1
56	57	180	2.5	0	0	0	0	1
57	56	180	2.5	0	0	0	0	1
58	59	180	2.5	0	0	0	0	1
59	58	180	2.5	0	0	0	0	1
60	61	180	2.5	0	0	0	0	1
61	60	180	2.5	0	0	0	0	1
62	63	180	2.5	0	0	0	0	1
63	62	180	2.5	0	0	0	0	1
64	65	180	2.5	0	0	0	0	1
65	64	180	2.5	0	0	0	0	1
66	67	180	2.5	0	0	0	0	1
67	66	180	2.5	0	0	0	0	1
68	69	180	2.5	0	0	0	0	1
69	68	180	2.5	0	0	0	0	1
70	71	180	2.5	0	0	0	0	1
71	70	180	2.5	0	0	0	0	1
72	73	180	2.5	0	0	0	0	1
73	72	180	2.5	0	0	0	0	1
74	75	180	2.5	0	0	0	0	1
75	74	180	2.5	0	0	0	0	1
76	77	180	2.5	0	0	0	0	1
77	76	180	2.5	0	0	0	0	1
78	79	180	2.5	0	0	0	0	1
79	78	180	2.5	0	0	0	0	1
80	81	180	2.5	0	0	0	0	1
81	80	180	2.5	0	0	0	0	1
82	83	180	2.5	0	0	0	0	1
83	82	180	2.5	0	0	0	0	1
84	85	180	2.5	0	0	0	0	1
85	84	180	2.5	0	0	0	0	1
86	87	180	2.5	0	0	0	0	1
87	86	180	2.5	0	0	0	0	1
88	89	180	2.5	0	0	0	0	1
89	88	180	2.5	0	0	0	0	1
90	91	180	2.5	0	0	0	0	1
91	90	180	2.5	0	0	0	0	1
92	93	180	2.5	0	0	0	0	1
93	92	180	2.5	0	0	0	0	1
94	95	180	2.5	0	0	0	0	1
95	94	180	2.5	0	0	0	0	1
96	97	180	2.5	0	0	0	0	1
97	96	180	2.5	0	0	0	0	1
98	99	180	2.5	0	0	0	0	1
99	98	180	2.5	0	0	0	0	1
100	101	180	2.5	0	0	0	0	1
101	100	180	2.5	0	0	0	0	1
102	103	180	2.5	0	0	0	0	1
103	102	180	2.5	0	0	0	0	1
104	105	180	2.5	0	0	0	0	1
105	104	180	2.5	0	0	0	0	1
106	107	180	2.5	0	0	0	0	1
107	106	180	2.5	0	0	0	0	1
108	109	180	2.5	0	0	0	0	1
109	108	180	2.5	0	0	0	0	1
[NumHoles] = 0
[NumBlockLabels] = 50
0.001	0.01925	50	-1	0	0
0.0091000000000000004	0.013149999999999998	3	-1	1	0
0.0091000000000000004	0.010749999999999999	4	-1	1	0
0.0091000000000000004	0.0083499999999999998	5	-1	1	0
0.0091000000000000004	0.0059499999999999996	6	-1	1	0
0.0091000000000000004	0.0035499999999999993	7	-1	1	0
0.0091000000000000004	0.0011499999999999991	8	-1	1	0
0.0091000000000000004	-0.0012500000000000011	9	-1	1	0
0.0091000000000000004	-0.0036500000000000013	10	-1	1	0
0.0091000000000000004	-0.0060500000000000016	11	-1	1	0
0.0091000000000000004	-0.0084500000000000026	12	-1	1	0
0.0091000000000000004	-0.010850000000000002	13	-1	1	0
0.0091000000000000004	-0.013250000000000001	14	-1	1	0
0.014545217138719549	0.013149999999999998	15	-1	1	0
0.014545217138719549	0.010749999999999999	16	-1	1	0
0.014545217138719549	0.0083499999999999998	17	-1	1	0
0.014545217138719549	0.0059499999999999996	18	-1	1	0
0.014545217138719549	0.0035499999999999993	19	-1	1	0
0.014545217138719549	0.0011499999999999991	20	-1	1	0
0.014545217138719549	-0.0012500000000000011	21	-1	1	0
0.014545217138719549	-0.0036500000000000013	22	-1	1	0
0.014545217138719549	-0.0060500000000000016	23	-1	1	0
0.014545217138719549	-0.0084500000000000026	24	-1	1	0
0.014545217138719549	-0.010850000000000002	25	-1	1	0
0.014545217138719549	-0.013250000000000001	26	-1	1	0
0.016945217138719552	0.013149999999999998	27	-1	1	0
0.016945217138719552	0.010749999999999999	28	-1	1	0
0.016945217138719552	0.0083499999999999998	29	-1	1	0
0.016945217138719552	0.0059499999999999996	30	-1	1	0
0.016945217138719552	0.0035499999999999993	31	-1	1	0
0.016945217138719552	0.0011499999999999991	32	-1	1	0
0.016945217138719552	-0.0012500000000000011	33	-1	1	0
0.016945217138719552	-0.0036500000000000013	34	-1	1	0
0.016945217138719552	-0.0060500000000000016	35	-1	1	0
0.016945217138719552	-0.0084500000000000026	36	-1	1	0
0.016945217138719552	-0.010850000000000002	37	-1	1	0
0.016945217138719552	-0.013250000000000001	38	-1	1	0
0.011822608569359775	0.013127391430640224	39	-1	1	0
0.011822608569359775	0.010682174291920674	40	-1	1	0
0.011822608569359775	0.008236957153201125	41	-1	1	0
0.011822608569359775	0.0057917400144815757	42	-1	1	0
0.011822608569359775	0.003346522875762026	43	-1	1	0
0.011822608569359775	0.00090130573704247634	44	-1	1	0
0.011822608569359775	-0.0015439114016770734	45	-1	1	0
0.011822608569359775	-0.0039891285403966231	46	-1	1	0
0.011822608569359775	-0.0064343456791161723	47	-1	1	0
0.011822608569359775	-0.0088795628178357216	48	-1	1	0
0.011822608569359775	-0.011324779956555271	49	-1	1	0
0.019892582415776176	0.017499999999999998	1	-1	0	0
0.001	0	2	-1	0	0
